Circuit: * C:\Users\Keshav\Documents\LTspiceXVII\Halfsubtractor\2\Full subtractor schematic.asc

WARNING: Less than two connections to node FINAL_DIFF.  This node is used by A:X2:1.
WARNING: Less than two connections to node FINAL_BORROW.  This node is used by A1.
Direct Newton iteration for .op point succeeded.

Date: Mon Nov 09 23:26:58 2020
Total elapsed time: 0.061 seconds.

tnom = 27
temp = 27
method = modified trap
totiter = 4128
traniter = 4125
tranpoints = 2026
accept = 1996
rejected = 30
matrix size = 13
fillins = 0
solver = Normal
Matrix Compiler1: 226 bytes object code size  0.1/0.0/[0.0]
Matrix Compiler2: 553 bytes object code size  0.1/0.1/[0.0]

