Circuit: * C:\Users\Keshav\Documents\LTspiceXVII\Keshav_DIC\2\VTC_Full subtractor.asc

WARNING: Less than two connections to node FINAL_DIFF.  This node is used by A:X2:1.
WARNING: Less than two connections to node FINAL_BORROW.  This node is used by A1.

Date: Mon Nov 09 23:53:41 2020
Total elapsed time: 0.022 seconds.

tnom = 27
temp = 27
method = trap
totiter = 19
traniter = 0
tranpoints = 0
accept = 0
rejected = 0
matrix size = 13
fillins = 0
solver = Normal
Matrix Compiler1: 226 bytes object code size
Matrix Compiler2: 553 bytes object code size
